Circuit: * C:\GitHub\research\Ltspice\Dickson\1to4_dickson_diodes.asc

Limiting fall time of source i1 to 0.0992
Per .tran options, skipping operating point for transient analysis.

iinave: AVG(i(source))=0.499823 FROM 0 TO 3.2e-005
pin: -iinave*5=-2.49911
voave: AVG(v(vload))=10.4412 FROM 0 TO 3.2e-005
pout: voave*2=20.8824
ploss: pin-pout=-23.3815
efficiency: pout/pin=-8.35592
vo: AVG(v(vload))=10.4412 FROM 0 TO 3.2e-005
vmax: MAX(v(vload))=10.5846 FROM 0 TO 3.2e-005
vmin: MIN(v(vload))=10.2142 FROM 0 TO 3.2e-005
ripple: vmax-vmin=0.370401


Date: Sat Nov 21 19:17:16 2015
Total elapsed time: 3.487 seconds.

tnom = 27
temp = 27
method = modified trap
totiter = 2746478
traniter = 2746478
tranpoints = 1360043
accept = 1317542
rejected = 42501
matrix size = 16
fillins = 10
solver = Normal
Matrix Compiler1: 1.21 KB object code size  0.3/0.1/[0.1]
Matrix Compiler2: 1.25 KB object code size  0.1/0.1/[0.1]


