Circuit: * C:\GitHub\research\Ltspice\Dickson\LLC_simple.asc

Direct Newton iteration for .op point succeeded.
.step period=1e-007
.step period=1.25893e-007
.step period=1.58489e-007
.step period=1.99526e-007
.step period=2.51189e-007
.step period=3.16228e-007
.step period=3.98107e-007
.step period=5.01187e-007
.step period=6.30957e-007
.step period=7.94328e-007
.step period=1e-006
.step period=1.25893e-006
.step period=1.58489e-006
.step period=1.99526e-006
.step period=2.51189e-006
.step period=3.16228e-006
.step period=3.98107e-006
.step period=5.01187e-006
.step period=6.30957e-006
.step period=7.94328e-006
.step period=1e-005

Date: Thu Dec 10 17:34:28 2015
Total elapsed time: 2.970 seconds.

tnom = 27
temp = 27
method = modified trap
totiter = 42043
traniter = 42040
tranpoints = 20150
accept = 16199
rejected = 3951
matrix size = 14
fillins = 6
solver = Normal
Matrix Compiler1: 988 bytes object code size  0.2/0.1/[0.0]
Matrix Compiler2: 1.02 KB object code size  0.1/0.1/[0.0]


