Circuit: * C:\GitHub\research\Ltspice\Dickson\LLC_multilevel_high_Vout.asc

Direct Newton iteration for .op point succeeded.

Date: Thu Dec 10 20:54:45 2015
Total elapsed time: 0.188 seconds.

tnom = 27
temp = 27
method = modified trap
totiter = 78468
traniter = 78464
tranpoints = 36489
accept = 28986
rejected = 7503
matrix size = 20
fillins = 5
solver = Normal
Matrix Compiler1: 1.14 KB object code size  0.2/0.1/[0.1]
Matrix Compiler2: 1.32 KB object code size  0.1/0.2/[0.1]


