Circuit: * C:\GitHub\research\Ltspice\Dickson\LLC_multilevel.asc

Direct Newton iteration for .op point succeeded.

Date: Thu Dec 10 20:31:46 2015
Total elapsed time: 0.210 seconds.

tnom = 27
temp = 27
method = modified trap
totiter = 78902
traniter = 78898
tranpoints = 36595
accept = 28154
rejected = 8441
matrix size = 20
fillins = 5
solver = Normal
Matrix Compiler1:      66 opcodes  0.3/[0.1]/0.1
Matrix Compiler2: off  [0.1]/0.2/0.1


