Circuit: * C:\github\research\Ltspice\Dickson\resonance_study.asc

.OP point found by inspection.

Date: Thu Dec 10 02:03:48 2015
Total elapsed time: 0.590 seconds.

tnom = 27
temp = 27
method = modified trap
totiter = 154491
traniter = 154491
tranpoints = 75034
accept = 73829
rejected = 1205
matrix size = 9
fillins = 6
solver = Normal
Matrix Compiler1: 868 bytes object code size  0.5/0.3/[0.2]
Matrix Compiler2: 817 bytes object code size  0.3/0.3/[0.2]


